24
Lattice="5.727564927611035 0.0 0.0 0.0 4.960216729135935 0.0 0.0 0.0 31.691342951089926" Properties=species:S:1:pos:R:3:tags:I:1 pbc="T T T"
Al       1.43189123       0.82670279      10.00000000        6
Al       4.29567370       0.82670279      10.00000000        6
Al       0.00000000       3.30681115      10.00000000        6
Al       2.86378246       3.30681115      10.00000000        6
Al       0.00000000       1.65340558      12.33826859        5
Al       2.86378246       1.65340558      12.33826859        5
Al       1.43189123       4.13351394      12.33826859        5
Al       4.29567370       4.13351394      12.33826859        5
Al       0.00000000       0.00000000      14.67653718        4
Al       2.86378246       0.00000000      14.67653718        4
Al       1.43189123       2.48010836      14.67653718        4
Al       4.29567370       2.48010836      14.67653718        4
Al       1.43189123       0.82670279      17.01480577        3
Al       4.29567370       0.82670279      17.01480577        3
Al       0.00000000       3.30681115      17.01480577        3
Al       2.86378246       3.30681115      17.01480577        3
Al       0.00000000       1.65340558      19.35307436        2
Al       2.86378246       1.65340558      19.35307436        2
Al       1.43189123       4.13351394      19.35307436        2
Al       4.29567370       4.13351394      19.35307436        2
Al       0.00000000       0.00000000      21.69134295        1
Al       2.86378246       0.00000000      21.69134295        1
Al       1.43189123       2.48010836      21.69134295        1
Al       4.29567370       2.48010836      21.69134295        1
